#  HTS1404-00000229-01     1    of    5
#                 SCORE =  -198.2754
#              dG-SCORE =    -5.4170
#     LIGAND_EFFICIENCY =    -1.4163
# NUMBER_OF_HEAVY_ATOMS =         14
#                   ASA =  -181.5179
#                   ELE =     2.3654
#                   HYD =   -18.6176
#                   VDW =    -0.5053
#                  RMSD =    24.9551
@<TRIPOS>MOLECULE
HTS1404-00000229-01                                                             
   21   22    0    0    0
SMALL       
USER_CHARGES
 
@<TRIPOS>ATOM
    1 C        23.5970    5.8309   -4.0321 C.ar     1 UNK         -0.0048
    2 C        23.4777    5.8638   -2.6845 C.ar     1 UNK         -0.3298
    3 H        23.0250    5.0970   -2.0836 H        1 UNK          0.1575
    4 N        24.2135    6.9412   -4.1251 N.ar     1 UNK         -0.1297
    5 C        23.1667    4.8938   -4.9309 C.ar     1 UNK          0.0490
    6 C        24.0519    7.1408   -2.1754 C.ar     1 UNK          0.1235
    7 N        24.5695    7.8271   -3.2148 N.ar     1 UNK         -0.1664
    8 H        25.0406    8.7043   -3.2705 H        1 UNK          0.2883
    9 C        23.3058    4.9646   -6.3487 C.ar     1 UNK         -0.0999
   10 C        22.5376    3.7775   -4.3883 C.ar     1 UNK         -0.1017
   11 H        22.4589    3.6856   -3.3243 H        1 UNK          0.1449
   12 C        22.8846    3.9007   -7.1042 C.ar     1 UNK         -0.1208
   13 H        23.0523    3.9261   -8.1735 H        1 UNK          0.1467
   14 N        24.0319    7.5509   -0.8822 N.pl3    1 UNK         -0.4163
   15 H        23.5447    6.9975   -0.2130 H        1 UNK          0.2313
   16 H        24.4750    8.3945   -0.6032 H        1 UNK          0.2313
   17 C        22.0301    2.8101   -5.1856 C.ar     1 UNK         -0.1425
   18 Br       24.0516    6.4422   -7.3496 Br       1 UNK          0.0564
   19 C        22.2695    2.8344   -6.5131 C.ar     1 UNK         -0.1023
   20 H        21.9643    1.9938   -7.1020 H        1 UNK          0.1436
   21 Br       20.9690    1.4511   -4.4213 Br       1 UNK          0.0417
@<TRIPOS>BOND
     1     1     2   ar
     2     1     4   ar
     3     1     5   1 
     4     2     6   ar
     5     4     7   ar
     6     5     9   ar
     7     5    10   ar
     8     9    12   ar
     9     6    14   1 
    10    10    17   ar
    11     9    18   1 
    12    17    19   ar
    13    17    21   1 
    14     6     7   ar
    15    12    19   ar
    16     2     3   1 
    17     7     8   1 
    18    10    11   1 
    19    12    13   1 
    20    14    15   1 
    21    14    16   1 
    22    19    20   1 
#MOLECULE END
 
#  HTS1404-00000229-01     2    of    5
#                 SCORE =  -197.5771
#              dG-SCORE =    -5.3988
#     LIGAND_EFFICIENCY =    -1.4113
# NUMBER_OF_HEAVY_ATOMS =         14
#                   ASA =  -180.8275
#                   ELE =     2.3352
#                   HYD =   -18.5930
#                   VDW =    -0.4918
#                  RMSD =    24.9631
@<TRIPOS>MOLECULE
HTS1404-00000229-01                                                             
   21   22    0    0    0
SMALL       
USER_CHARGES
 
@<TRIPOS>ATOM
    1 C        23.5942    5.8473   -4.0452 C.ar     1 UNK         -0.0048
    2 C        23.4658    5.8763   -2.6981 C.ar     1 UNK         -0.3298
    3 H        23.0021    5.1111   -2.1029 H        1 UNK          0.1575
    4 N        24.2156    6.9546   -4.1309 N.ar     1 UNK         -0.1297
    5 C        23.1671    4.9163   -4.9508 C.ar     1 UNK          0.0490
    6 C        24.0491    7.1460   -2.1811 C.ar     1 UNK          0.1235
    7 N        24.5730    7.8342   -3.2160 N.ar     1 UNK         -0.1664
    8 H        25.0486    8.7088   -3.2667 H        1 UNK          0.2883
    9 C        23.3170    4.9902   -6.3671 C.ar     1 UNK         -0.0999
   10 C        22.5308    3.8025   -4.4153 C.ar     1 UNK         -0.1017
   11 H        22.4452    3.7076   -3.3522 H        1 UNK          0.1449
   12 C        22.8860    3.9352   -7.1296 C.ar     1 UNK         -0.1208
   13 H        23.0532    3.9681   -8.1992 H        1 UNK          0.1467
   14 N        24.0323    7.5510   -0.8864 N.pl3    1 UNK         -0.4163
   15 H        23.5413    7.0000   -0.2187 H        1 UNK          0.2313
   16 H        24.4838    8.3899   -0.6050 H        1 UNK          0.2313
   17 C        22.0234    2.8389   -5.2139 C.ar     1 UNK         -0.1425
   18 Br       24.0934    6.4606   -7.3555 Br       1 UNK          0.0564
   19 C        22.2635    2.8684   -6.5440 C.ar     1 UNK         -0.1023
   20 H        21.9552    2.0341   -7.1400 H        1 UNK          0.1436
   21 Br       20.9687    1.4890   -4.4182 Br       1 UNK          0.0417
@<TRIPOS>BOND
     1     1     2   ar
     2     1     4   ar
     3     1     5   1 
     4     2     6   ar
     5     4     7   ar
     6     5     9   ar
     7     5    10   ar
     8     9    12   ar
     9     6    14   1 
    10    10    17   ar
    11     9    18   1 
    12    17    19   ar
    13    17    21   1 
    14     6     7   ar
    15    12    19   ar
    16     2     3   1 
    17     7     8   1 
    18    10    11   1 
    19    12    13   1 
    20    14    15   1 
    21    14    16   1 
    22    19    20   1 
#MOLECULE END
 
#  HTS1404-00000229-01     3    of    5
#                 SCORE =  -196.4054
#              dG-SCORE =    -5.3693
#     LIGAND_EFFICIENCY =    -1.4029
# NUMBER_OF_HEAVY_ATOMS =         14
#                   ASA =  -179.6703
#                   ELE =     2.2967
#                   HYD =   -18.5822
#                   VDW =    -0.4496
#                  RMSD =    24.9717
@<TRIPOS>MOLECULE
HTS1404-00000229-01                                                             
   21   22    0    0    0
SMALL       
USER_CHARGES
 
@<TRIPOS>ATOM
    1 C        23.5866    5.8591   -4.0578 C.ar     1 UNK         -0.0048
    2 C        23.4492    5.8855   -2.7107 C.ar     1 UNK         -0.3298
    3 H        22.9740    5.1234   -2.1200 H        1 UNK          0.1575
    4 N        24.2129    6.9636   -4.1358 N.ar     1 UNK         -0.1297
    5 C        23.1651    4.9344   -4.9727 C.ar     1 UNK          0.0490
    6 C        24.0426    7.1484   -2.1864 C.ar     1 UNK          0.1235
    7 N        24.5725    7.8376   -3.2172 N.ar     1 UNK         -0.1664
    8 H        25.0528    8.7096   -3.2637 H        1 UNK          0.2883
    9 C        23.3322    5.0153   -6.3878 C.ar     1 UNK         -0.0999
   10 C        22.5185    3.8209   -4.4495 C.ar     1 UNK         -0.1017
   11 H        22.4198    3.7188   -3.3889 H        1 UNK          0.1449
   12 C        22.8948    3.9722   -7.1623 C.ar     1 UNK         -0.1208
   13 H        23.0658    4.0147   -8.2315 H        1 UNK          0.1467
   14 N        24.0321    7.5508   -0.8905 N.pl3    1 UNK         -0.4163
   15 H        23.5380    7.0025   -0.2225 H        1 UNK          0.2313
   16 H        24.4910    8.3853   -0.6087 H        1 UNK          0.2313
   17 C        22.0170    2.8629   -5.2573 C.ar     1 UNK         -0.1425
   18 Br       24.1435    6.4792   -7.3580 Br       1 UNK          0.0564
   19 C        22.2620    2.9043   -6.5888 C.ar     1 UNK         -0.1023
   20 H        21.9507    2.0795   -7.1963 H        1 UNK          0.1436
   21 Br       20.9700    1.5102   -4.4531 Br       1 UNK          0.0417
@<TRIPOS>BOND
     1     1     2   ar
     2     1     4   ar
     3     1     5   1 
     4     2     6   ar
     5     4     7   ar
     6     5     9   ar
     7     5    10   ar
     8     9    12   ar
     9     6    14   1 
    10    10    17   ar
    11     9    18   1 
    12    17    19   ar
    13    17    21   1 
    14     6     7   ar
    15    12    19   ar
    16     2     3   1 
    17     7     8   1 
    18    10    11   1 
    19    12    13   1 
    20    14    15   1 
    21    14    16   1 
    22    19    20   1 
#MOLECULE END
 
#  HTS1404-00000229-01     4    of    5
#                 SCORE =  -195.0649
#              dG-SCORE =    -5.3359
#     LIGAND_EFFICIENCY =    -1.3933
# NUMBER_OF_HEAVY_ATOMS =         14
#                   ASA =  -178.3464
#                   ELE =     2.2589
#                   HYD =   -18.5832
#                   VDW =    -0.3943
#                  RMSD =    24.9780
@<TRIPOS>MOLECULE
HTS1404-00000229-01                                                             
   21   22    0    0    0
SMALL       
USER_CHARGES
 
@<TRIPOS>ATOM
    1 C        23.5738    5.8695   -4.0669 C.ar     1 UNK         -0.0048
    2 C        23.4308    5.8927   -2.7194 C.ar     1 UNK         -0.3298
    3 H        22.9421    5.1365   -2.1318 H        1 UNK          0.1575
    4 N        24.2054    6.9704   -4.1386 N.ar     1 UNK         -0.1297
    5 C        23.1627    4.9491   -4.9906 C.ar     1 UNK          0.0490
    6 C        24.0320    7.1514   -2.1906 C.ar     1 UNK          0.1235
    7 N        24.5699    7.8385   -3.2182 N.ar     1 UNK         -0.1664
    8 H        25.0545    8.7081   -3.2629 H        1 UNK          0.2883
    9 C        23.3456    5.0375   -6.4042 C.ar     1 UNK         -0.0999
   10 C        22.5020    3.8376   -4.4819 C.ar     1 UNK         -0.1017
   11 H        22.3903    3.7281   -3.4234 H        1 UNK          0.1449
   12 C        22.9028    4.0056   -7.1911 C.ar     1 UNK         -0.1208
   13 H        23.0759    4.0531   -8.2597 H        1 UNK          0.1467
   14 N        24.0325    7.5470   -0.8934 N.pl3    1 UNK         -0.4163
   15 H        23.5354    7.0048   -0.2242 H        1 UNK          0.2313
   16 H        24.4956    8.3820   -0.6133 H        1 UNK          0.2313
   17 C        22.0108    2.8852   -5.3011 C.ar     1 UNK         -0.1425
   18 Br       24.1966    6.4911   -7.3556 Br       1 UNK          0.0564
   19 C        22.2557    2.9406   -6.6310 C.ar     1 UNK         -0.1023
   20 H        21.9381    2.1262   -7.2487 H        1 UNK          0.1436
   21 Br       20.9709    1.5190   -4.5134 Br       1 UNK          0.0417
@<TRIPOS>BOND
     1     1     2   ar
     2     1     4   ar
     3     1     5   1 
     4     2     6   ar
     5     4     7   ar
     6     5     9   ar
     7     5    10   ar
     8     9    12   ar
     9     6    14   1 
    10    10    17   ar
    11     9    18   1 
    12    17    19   ar
    13    17    21   1 
    14     6     7   ar
    15    12    19   ar
    16     2     3   1 
    17     7     8   1 
    18    10    11   1 
    19    12    13   1 
    20    14    15   1 
    21    14    16   1 
    22    19    20   1 
#MOLECULE END
 
#  HTS1404-00000229-01     5    of    5
#                 SCORE =  -193.2241
#              dG-SCORE =    -5.3119
#     LIGAND_EFFICIENCY =    -1.3802
# NUMBER_OF_HEAVY_ATOMS =         14
#                   ASA =  -176.6844
#                   ELE =     3.2373
#                   HYD =   -19.6485
#                   VDW =    -0.1285
#                  RMSD =    24.7642
@<TRIPOS>MOLECULE
HTS1404-00000229-01                                                             
   21   22    0    0    0
SMALL       
USER_CHARGES
 
@<TRIPOS>ATOM
    1 C        23.5007    5.4979   -3.6444 C.ar     1 UNK         -0.0048
    2 C        23.3390    5.5460   -2.3036 C.ar     1 UNK         -0.3298
    3 H        22.8177    4.8089   -1.7223 H        1 UNK          0.1575
    4 N        24.1660    6.5754   -3.7151 N.ar     1 UNK         -0.1297
    5 C        23.0824    4.5863   -4.5723 C.ar     1 UNK          0.0490
    6 C        23.9841    6.7949   -1.7818 C.ar     1 UNK          0.1235
    7 N        24.5397    7.4483   -2.8078 N.ar     1 UNK         -0.1664
    8 H        25.0427    8.3038   -2.8525 H        1 UNK          0.2883
    9 C        23.3145    4.6701   -5.9772 C.ar     1 UNK         -0.0999
   10 C        22.3592    3.5039   -4.0936 C.ar     1 UNK         -0.1017
   11 H        22.1938    3.4075   -3.0409 H        1 UNK          0.1449
   12 C        22.8647    3.6602   -6.7845 C.ar     1 UNK         -0.1208
   13 H        23.0854    3.7034   -7.8413 H        1 UNK          0.1467
   14 N        24.0128    7.2407   -0.4999 N.pl3    1 UNK         -0.4163
   15 H        23.5235    6.7278    0.2025 H        1 UNK          0.2313
   16 H        24.4943    8.0726   -0.2570 H        1 UNK          0.2313
   17 C        21.8611    2.5746   -4.9447 C.ar     1 UNK         -0.1425
   18 Br       24.2524    6.0865   -6.9004 Br       1 UNK          0.0564
   19 C        22.1485    2.6310   -6.2608 C.ar     1 UNK         -0.1023
   20 H        21.8077    1.8438   -6.8926 H        1 UNK          0.1436
   21 Br       20.7244    1.2225   -4.2924 Br       1 UNK          0.0417
@<TRIPOS>BOND
     1     1     2   ar
     2     1     4   ar
     3     1     5   1 
     4     2     6   ar
     5     4     7   ar
     6     5     9   ar
     7     5    10   ar
     8     9    12   ar
     9     6    14   1 
    10    10    17   ar
    11     9    18   1 
    12    17    19   ar
    13    17    21   1 
    14     6     7   ar
    15    12    19   ar
    16     2     3   1 
    17     7     8   1 
    18    10    11   1 
    19    12    13   1 
    20    14    15   1 
    21    14    16   1 
    22    19    20   1 
#MOLECULE END
 
