@<TRIPOS>COMMENT
 LIGANDBOX_SECT = c001
 LIGANDBOX_ID = HTS1404-00000229-01
 SOURCE = Namiki1404
 SOURCE_ID = NS-00000269
 SUPPLIER = Vitas-M
 IDNUMBER = STK893543
 MOLECULAR_FORMULA = C9H7N3Br2
 MOLECULAR_WEIGHT = 316.984
 MOLECULAR_CHARGE = 0
 NUM_OF_DONOR = 3
 NUM_OF_ACCEPTOR = 1
 HOMO = -8.4794
 LUMO = -0.2316
 NUM_OF_CHIRAL_ATOMS = 0
 LOGS = -4.0099
 LOGP = 3.5348
 NOTE = Vitas-M_STK893543;

@<TRIPOS>MOLECULE
HTS1404-00000229-01
 21 22 0 0 0
SMALL
USER_CHARGES

@<TRIPOS>ATOM
     1 C1           0.4250     0.0890     0.0000 C.ar      1  UNK        -0.0048
     2 C2           1.1810     1.1960     0.0000 C.ar      1  UNK        -0.3298
     3 H1           0.8570     2.2230     0.0000 H         1  UNK         0.1575
     4 N1           1.2230    -0.9500     0.0000 N.ar      1  UNK        -0.1297
     5 C3          -0.9290    -0.0210     0.0000 C.ar      1  UNK         0.0490
     6 C4           2.5650     0.7400     0.0000 C.ar      1  UNK         0.1235
     7 N2           2.5420    -0.6050     0.0000 N.ar      1  UNK        -0.1664
     8 H2           3.2970    -1.2600     0.0000 H         1  UNK         0.2883
     9 C5          -1.6510    -1.1790     0.0000 C.ar      1  UNK        -0.0999
    10 C6          -1.6460     1.1220     0.0000 C.ar      1  UNK        -0.1017
    11 H3          -1.1700     2.0860     0.0000 H         1  UNK         0.1449
    12 C7          -2.9870    -1.1280     0.0000 C.ar      1  UNK        -0.1208
    13 H4          -3.5700    -2.0400     0.0000 H         1  UNK         0.1467
    14 N3           3.7280     1.4630     0.0000 N.pl3     1  UNK        -0.4163
    15 H5           3.7460     2.4620     0.0000 H         1  UNK         0.2313
    16 H6           4.6340     1.0390     0.0000 H         1  UNK         0.2313
    17 C8          -2.9750     1.1580     0.0000 C.ar      1  UNK        -0.1425
    18 Br1         -1.0130    -2.9970     0.0000 Br        1  UNK         0.0564
    19 C9          -3.6440     0.0180     0.0000 C.ar      1  UNK        -0.1023
    20 H7          -4.7250     0.0160     0.0000 H         1  UNK         0.1436
    21 Br2         -3.9030     2.8140     0.0000 Br        1  UNK         0.0417

@<TRIPOS>BOND
     1     1     2  ar
     2     1     4  ar
     3     1     5   1
     4     2     6  ar
     5     4     7  ar
     6     5     9  ar
     7     5    10  ar
     8     9    12  ar
     9     6    14   1
    10    10    17  ar
    11     9    18   1
    12    17    19  ar
    13    17    21   1
    14     6     7  ar
    15    12    19  ar
    16     2     3   1
    17     7     8   1
    18    10    11   1
    19    12    13   1
    20    14    15   1
    21    14    16   1
    22    19    20   1
